agvis/cases/ercot276_out.txt
ANDES 1.8.6.post6+g0aa86b9f
Copyright (C) 2015-2022 Hantao Cui

ANDES comes with ABSOLUTELY NO WARRANTY
Case file: ercot276.xlsx
Report time: 07/13/2023 11:52:19 AM

Power flow converged in 3 iterations.
Flat-start: No

Statistics:
Buses                            276
Generators                        32
Committed Gens                    32
Loads                            306
Shunts                           311
Lines                           2032
Transformers                    1160
Areas                             15

EXTENDED SUMMARY:
                              P (pu)            Q (pu)

Generation                    757.62            80.347
Load                          743.72            242.65

BUS DATA:
                            Bus Name            Vm(pu)          Va(rad.)

30001                        HEARNE9            1.0065           0.49239
30002                     HILTOPLKS8            1.0167           0.53138
30003                        PANCAKE            1.0016           0.32136
30004                     REAGORSPRG           0.99716            0.2766
30005                       WHITNEY8            1.0247            0.5073
30006                       HILLTOP8            1.0123           0.35803
30007                           RENO            1.0092           0.31269
30008                         OLNEY9            1.0019           0.34168
30009                    GIBN_CREK_8             1.023           0.53971
30010                    GIBN_CREK_5            1.0265           0.56095
30011                       MCCREE_5           0.99853           0.37788
30012                       JKCREEK1            1.0301           0.59186
30013                   GIBN_CREK_G1           0.98521           0.67678
30014                     PERMIANB_8             1.036            0.4866
30015                         MOSS_8            1.0309           0.47291
30016                      ODESEHV_8            1.0317           0.50136
30017                      MRGNCRK_5            1.0347           0.50249
30018                    LONGSHORE_5            1.0244           0.51876
30019                       LAMESA_8            1.0011           0.32808
30020                     CHINAGRV_8            1.0167           0.45438
30021                       ESKOTA_9            1.0246           0.31738
30022                        CHALK_9           0.99845           0.40214
30023                     WILLOWCK_5            1.0245           0.43724
30024                    GRHAMSES1_5            1.0298           0.45462
30025                    GRHAMSES1_8            1.0291           0.42537
30026                       PARKER_5            1.0206           0.41534
30027                        BROWN_5            1.0371           0.46604
30028                        ORAN1_8            1.0127           0.39975
30029                     ANRNESW1_9             0.993           0.33396
30030                     STPHNVIL_8            1.0173           0.38977
30031                    SULSP_SS1_8             1.101           0.48739
30032                    EAGLEMNT1_8            1.0281           0.27982
30033                      EVRMAN_A8            1.0297           0.30945
30034                     DECRDOVA_8             1.023           0.43636
30035                    COMCHEPK_1G            1.0165           0.59638
30036                     COMCHPKW_5            1.0243            0.4902
30037                       VENUS_S5            1.0027           0.41524
30038                       VENUS_N5             1.003           0.42445
30039                       VENUS3_8            1.0219           0.34268
30040                     LIGGETT_N8            1.0155           0.25134
30041                     LIGGETT_S8            1.0155           0.22901
30042                     SAGINAW1_8            1.0212            0.2279
30043                    STERRETT1_8            1.0156           0.31824
30044                    TRUMBULL_P8            1.0229           0.34095
30045                      WLEVEE1_5            1.0084           0.34105
30046                     NORWDPL_W8            1.0155           0.25006
30047                     NORWDPL_E8            1.0155           0.25006
30048                      CHILSW1_5            1.0044           0.37328
30049                      WATMLL_W5            1.0033           0.40146
30050                      WATMLL_E8            1.0151           0.32674
30051                      SGVLSW1_8            1.0189           0.36828
30052                        FRNY1_5           0.99841            0.4457
30053                      PRCKSW1_8            1.0114           0.30047
30054                       KRKPK_E8             1.013           0.22317
30055                       KRKPK_W8             1.013           0.22321
30056                       ROYSE_A8            1.0144           0.33089
30057                       ROYSE_S5            1.0037           0.42276
30058                    MARTLAKE_1G            1.0148            0.9547
30059                     TRINIDAD_8            1.0266           0.45394
30060                      BIGBRN__5            1.0269           0.62135
30061                      JEWETT1_8            1.0191           0.55491
30062                    SANDYCRK_1G           0.98635           0.67397
30063                    TWIN_OAK__5            1.0365           0.64206
30064                      THOUSE__5            1.0166           0.53404
30065                    LAKE_CRK1_8            1.0178           0.49334
30066                     TEMP_SS__5            1.0223           0.55525
30067                     TEMP_SS__8            1.0167             0.487
30068                      SANDOW__5             1.029           0.58415
30069                      SANDOW1_8            1.0261           0.64657
30070                     NAVARRO1_8            1.0222           0.40481
30071                    HILLBORO1_9           0.98102           0.33278
30072                    ELGIN_SS__8             1.013           0.48787
30073                       BELL_E_5            1.0272           0.57604
30074                     HUTTOSS__5            1.0165           0.48307
30075                       CAGNON_5            1.0073           0.44558
30076                       LEON_CRK            1.0189            0.4287
30077                          LYTLE            1.0127           0.36682
30078                   CALAVER_JKS2            1.0305           0.64673
30079                       RAYBURN9            1.0237           0.51992
30080                   CALALLENSUB9            1.0174            0.4098
30081                   SNMIGUELSWA9            1.0239           0.43734
30082                      PAWNEESW5            1.0391           0.51849
30083                   TURTLECREEK9             1.001           0.21033
30084                   DILEYSWSTEC9              1.03           0.34542
30085                    PEARSALLSW9            1.0339           0.43554
30086                    PEARSALLSW8            1.0379           0.42361
30087                        MIGUEL8            1.0408           0.47233
30088                    STP_GN1___1           0.99442           0.66564
30089                   SO_TEX__345A            1.0401            0.5861
30090                        NBRADY2           0.97887            0.1606
30091                        RILEY7A             1.036           0.47128
30092                       MUNDAY 2            1.0054           0.24863
30093                       SPUR   4            1.0057            0.3634
30094                       ABILNW14           0.99727           0.31774
30095                       ABMULCE7            1.0295           0.46762
30096                       ABSOUTH4           0.99259           0.29828
30097                       PUT138 2           0.99443           0.22243
30098                       BALNGR 2            1.0273           0.23724
30099                       BALNGR 4           0.99253           0.27513
30100                     YELWJCKT2A            1.0371           0.26204
30101                     YELWJCKT4A           0.98004            0.2833
30102                       BRADYRE2           0.97759           0.16233
30103                       BRADYTP2             0.979           0.15933
30104                       EDENRTP2           0.99698           0.19399
30105                       CSANSAB2           0.98949           0.19796
30106                       TNCMASN2            1.0269           0.25984
30107                       SAREDCK4            1.0218           0.36818
30108                       SAPS2  4            1.0023           0.34051
30109                       RIOPEC14            1.0293           0.44678
30110                       FTSTKPL2            1.0008           0.40286
30111                       FTSTKPL4            1.0249           0.41525
30112                       BARRILA2            1.0199           0.39457
30113                       BARRILA4            1.0225           0.41141
30114                       ALPINE 2            1.0071           0.33987
30115                         ALMC2B            1.0254           0.34122
30116                     GONZALES2A            1.0102           0.29377
30117                       ALAMITO4            1.0013           0.35719
30118                       CIENEGA2            1.0205           0.32046
30119                       SHAFTER2            1.0162           0.30768
30120                       CHINATI2            1.0181           0.31291
30121                        BRYANT2            1.0205           0.32057
30122                       ATKINSN2            1.0191           0.31596
30123                       OKLAUN1G            1.0068          0.019505
30124                   L_FERGUS1_1Y           0.98885           0.48533
30125                   L_SIMGID1_3Y           0.96464           0.65294
30126                   L_LOSTPI1_3Y           0.99011           0.63939
30127                   L_FPPYD11_1Y           0.99998           0.76196
30128                   L_AUSTRO5_1Y            1.0117           0.55816
30129                   L_ZORN__5_1Y            1.0174           0.51637
30130                   L_GARFIE5_1Y            1.0098           0.55044
30131                   L_MAHACR5_1Y            1.0099           0.55149
30132                   L_CLEASP5_1Y            1.0192           0.51931
30133                   L_FPPYD25_1Y            1.0198           0.61927
30134                   L_FPPYD15_1Y            1.0197           0.61958
30135                   L_LAMPAS8_1Y             1.002           0.27553
30136                   L_CORONA8_1Y            1.0027           0.30669
30137                   L_BURNET9_1Y            1.0497           0.27303
30138                   L_FERGUS8_1Y             1.015            0.3731
30139                   L_GILLES9_1Y            1.0171           0.34531
30140                   L_GILLES8_1Y            1.0115           0.38108
30141                   L_KENDAL8_1Y            1.0135           0.38861
30142                   L_COMAL_8_1Y            1.0144           0.39881
30143                   L_SANMAR8_1Y            1.0171           0.38417
30144                   L_LULING8_1Y           0.99081           0.37923
30145                   L_SEGUIN8_1Y             1.015           0.38865
30146                   L_FLATON8_1Y           0.99289            0.4102
30147                   L_GLIDDE8_1Y            1.0097           0.47052
30148                   L_BELLSO8_1Y            1.0125           0.43789
30149                   L_PINECR8_1Y            1.0246            0.5428
30150                   L_SIMGID8_1Y            1.0198           0.54725
30151                   L_GABRIE8_1Y           0.99527           0.32916
30152                   L_MARSFO8_1Y           0.99266            0.3203
30153                   L_MILLER8_1Y           0.99445           0.32802
30154                   L_TURNER8_1Y            1.0104           0.37838
30155                   L_OLMOSW8_1Y            1.0138           0.37316
30156                   L_BASTEN1_1Y            1.0073           0.60307
30157                   L_RIONOG1S1Y            1.0224           0.65346
30158                       EL CAMP4            1.0192           0.54173
30159                       BLESSNG4            1.0139           0.55105
30160                       VICTRA 2            1.0401           0.55159
30161                       VICTRA 4            1.0149            0.6002
30162                       KENDYSW4            1.0228           0.43826
30163                       BEEVLLE2            1.0199           0.32896
30164                       DILLEY 2            1.0302           0.34234
30165                       DILYSW 4            1.0342           0.35612
30166                       UVALDE 4              1.03           0.27948
30167                       W.BATSV4            1.0339           0.27959
30168                       HAMILTN4              1.03           0.27115
30169                         ESCOND            1.0372           0.22762
30170                       EPASS C4            1.0375           0.22631
30171                       ASHERTN4            1.0354           0.26372
30172                    WORMSER4A01            1.0339           0.24652
30173                       SMCALN 4            1.0336            0.1155
30174                       EDNBRG 4            1.0221           0.18789
30175                       T.RIVR 2             1.034           0.36089
30176                       RINCON 2            1.0321           0.53442
30177                       RINCON 4            1.0256           0.57155
30178                       LNHILL 4            1.0257            0.5021
30179                       FALF   4            1.0397           0.31591
30180                       KLEBERG4            1.0224           0.39008
30181                       CMPWOOD2            1.0188           0.16749
30182                       MECBRUTP             1.037           0.34585
30183                       DECKR_G2           0.97308           0.53851
30184                       LOSTPN34            1.0149           0.59316
30185                        DUNLAP8            1.0312           0.48885
30186                         HOLMAN            1.0207           0.59809
30187                       LYTTON34            1.0037           0.53421
30188                       LYTTON13            1.0349           0.45926
30189                        MCNEILN            1.0024           0.36708
30190                       KINGSMB1             1.009           0.40762
30191                       HICRSMB2            1.0073           0.37987
30192                       DECK_MB1            1.0149            0.4438
30193                       DECK_MB3            1.0197           0.44995
30194                       SANDHSYD            1.0174           0.44967
30195                       HOWARDLN            1.0014           0.36093
30196                       ONION_CK            1.0172           0.44832
30197                       WILIAMSN           0.99845           0.33107
30198                        AUSTROP            1.0357           0.50571
30199                       PYRON_1G                 1           0.50653
30200                    BULLCREK_2G            1.0387           0.42951
...

LINE DATA:
                           Line Name     Fr. Bus (idx)      To Bus (idx)       P From (pu)       Q From (pu)         P To (pu)         Q To (pu)

Line_1                        Line_1             30001             30003          0.012854        -0.0013618         -0.012375         0.0035126
Line_2                        Line_2             30001             30004          0.047354        -0.0093113         -0.043851          0.019056
Line_3                        Line_3             30001             30210         -0.072324          0.017649          0.072645         -0.015839
Line_4                        Line_4             30002             30009         -0.053248         -0.026534          0.053353          0.027144
Line_5                        Line_5             30002             30061          -0.22923          0.013348           0.23003        -0.0079703
Line_6                        Line_6             30002             30065         0.0084477        -0.0025099        -0.0083554         0.0028325
Line_7                        Line_7             30002             30204           -0.1734          0.024709           0.17615         -0.006309
Line_8                        Line_8             30002             30208         0.0023715       -0.00017427        -0.0023578        0.00025563
Line_9                        Line_9             30002             30212         0.0020287        0.00016594        -0.0020266       -0.00015502
Line_10                      Line_10             30002             30214         0.0058399        0.00025168        -0.0058184       -0.00011206
Line_11                      Line_11             30002             30215        -0.0082839       -0.00091588         0.0082927        0.00094697
Line_12                      Line_12             30005             30006          0.025001        -0.0030626         -0.023972         0.0066646
Line_13                      Line_13             30005             30007         0.0039306       -0.00028714        -0.0037432          0.001026
Line_14                      Line_14             30005             30028         0.0034956       -0.00064224        -0.0033665         0.0010019
Line_15                      Line_15             30005             30030           0.52362         -0.028824          -0.51291          0.089376
Line_16                      Line_16             30005             30033           0.15893        -0.0085009           -0.1549          0.039765
Line_17                      Line_17             30005             30034           0.11369         -0.010036          -0.11249          0.018038
Line_18                      Line_18             30005             30039             0.218        -0.0079016          -0.21318          0.043401
Line_19                      Line_19             30005             30043           0.19574       -5.1404e-05          -0.19052          0.036508
Line_20                      Line_20             30005             30065           0.10904           0.03059          -0.10871         -0.028869
Line_21                      Line_21             30005             30067           0.06608          0.012695         -0.065805         -0.011263
Line_22                      Line_22             30005             30070            0.2565         -0.091047          -0.24523           0.11652
Line_23                      Line_23             30005             30135          0.016307       -0.00034025         -0.015442         0.0039863
Line_24                      Line_24             30006             30007            1.1849          -0.12307           -1.1746            0.1761
Line_25                      Line_25             30006             30025        -0.0017916        0.00032463         0.0018396       -0.00020672
Line_26                      Line_26             30006             30028          -0.36891          0.093716           0.37266         -0.078282
Line_27                      Line_27             30006             30030         -0.066059         0.0031907          0.066459         -0.001098
Line_28                      Line_28             30006             30032           0.26124         -0.096874          -0.25682           0.11881
Line_29                      Line_29             30006             30034          -0.27779          0.021983           0.28161       -0.00018046
Line_30                      Line_30             30006             30040         0.0016552       -0.00032434        -0.0016165        0.00050036
Line_31                      Line_31             30006             30041          0.002081       -0.00043689        -0.0020139        0.00070323
Line_32                      Line_32             30006             30043         0.0016246       -0.00053526        -0.0016072        0.00060142
Line_33                      Line_33             30006             30047         0.0011551       -0.00022089        -0.0011282        0.00034519
Line_34                      Line_34             30006             30203          0.018389        -0.0073662         -0.018042         0.0089215
Line_35                      Line_35             30007             30025        -0.0046599         0.0013617          0.004878       -0.00084547
Line_36                      Line_36             30007             30028          -0.35033          0.075825           0.35684         -0.045236
Line_37                      Line_37             30007             30030         -0.011611         0.0010958          0.011756       -0.00020009
Line_38                      Line_38             30007             30031         -0.015229        -0.0013756          0.016101         0.0043658
Line_39                      Line_39             30007             30032            0.1473          -0.12132          -0.14592           0.12846
Line_40                      Line_40             30007             30034         -0.080421         0.0089847           0.08202         0.0010174
Line_41                      Line_41             30007             30040          0.051313         -0.013486         -0.050706          0.016711
Line_42                      Line_42             30007             30041          0.071759         -0.017124         -0.070515          0.023206
Line_43                      Line_43             30007             30042          0.092421         -0.025518         -0.090996          0.033648
Line_44                      Line_44             30007             30043       -7.2945e-05       -4.9572e-05        7.3129e-05        5.0291e-05
Line_45                      Line_45             30007             30047          0.014233        -0.0036119         -0.014068         0.0045241
Line_46                      Line_46             30007             30053        0.00015597       -8.3317e-05       -0.00015529        8.5409e-05
Line_47                      Line_47             30007             30054          0.016953        -0.0035553          -0.01663         0.0050759
Line_48                      Line_48             30007             30055          0.015447        -0.0032821          -0.01515          0.004667
Line_49                      Line_49             30007             30056        -0.0022966       -0.00014944         0.0023054        0.00019221
Line_50                      Line_50             30007             30203          0.022222         -0.018095         -0.022029          0.019176
Line_51                      Line_51             30008             30029            0.0618           0.05331         -0.061657         -0.052361
Line_52                      Line_52             30008             30092          0.057746         -0.030649          -0.05484          0.036008
Line_53                      Line_53             30009             30208           0.37218          0.036656          -0.37014         -0.020452
Line_54                      Line_54             30009             30212           0.22191          0.087654          -0.22139         -0.083988
Line_55                      Line_55             30009             30214             1.139           0.21667           -1.1333          -0.17805
Line_56                      Line_56             30010             30012           -3.3522          -0.21415             3.359           0.10833
Line_57                      Line_57             30010             30063           -3.9043            -0.289            3.9245           0.14442
Line_58                      Line_58             30010             30236            4.7106          -0.43461           -4.7048           0.43354
Line_59                      Line_59             30010             30236            4.7106          -0.43461           -4.7048           0.43354
Line_60                      Line_60             30011             30023         -0.025777        -0.0089579          0.025856          0.010744
Line_61                      Line_61             30011             30024        -0.0042866        -0.0012202         0.0043113         0.0015936
Line_62                      Line_62             30011             30026         -0.016013        -0.0078365          0.016055         0.0086167
Line_63                      Line_63             30011             30037        -0.0022608       -6.0642e-05         0.0022665        0.00014565
Line_64                      Line_64             30011             30038        -0.0034323        3.8494e-05         0.0034457        0.00012186
Line_65                      Line_65             30011             30045           0.11219         -0.030161           -0.1121          0.034612
Line_66                      Line_66             30011             30048         0.0015545        -0.0021911        -0.0015535         0.0022111
Line_67                      Line_67             30011             30049        -0.0096794        -0.0017644         0.0096814         0.0020017
Line_68                      Line_68             30011             30052           -8.3432            1.2205            8.4057          -0.65219
Line_69                      Line_69             30011             30057           -4.1579          -0.15231            4.1683           0.34043
Line_70                      Line_70             30011             30091         -0.020788        -0.0062169          0.020873         0.0084335
Line_71                      Line_71             30012             30063           -4.3969          -0.27176            4.4114           0.22936
Line_72                      Line_72             30014             30015           0.10885       -5.7087e-05          -0.10858         -0.039496
Line_73                      Line_73             30014             30015           0.18214            0.0295          -0.18161         -0.026868
Line_74                      Line_74             30014             30016          -0.17549          0.090965           0.17608         -0.087998
Line_75                      Line_75             30014             30019           0.18945         0.0044417          -0.18145          0.024661
Line_76                      Line_76             30014             30113           0.36761         -0.022324          -0.36011          0.049221
Line_77                      Line_77             30015             30016           -1.3565           0.15754            1.3616          -0.11898
Line_78                      Line_78             30015             30019           0.24907          0.012055          -0.24103          0.023326
Line_79                      Line_79             30015             30258         0.0096027        -0.0032539        -0.0095693         0.0034978
Line_80                      Line_80             30016             30019          0.078615         0.0039571           -0.0758         0.0093703
Line_81                      Line_81             30016             30258           0.53469          -0.10049          -0.53085           0.12876
Line_82                      Line_82             30017             30018             -1.73            1.2882            1.7348            -1.428
Line_83                      Line_83             30017             30024           0.11371        -0.0032449          -0.11289         0.0086413
Line_84                      Line_84             30017             30201           0.60103         -0.087332          -0.60034          0.094441
Line_85                      Line_85             30017             30202            1.4064           0.25852           -1.4041          -0.23428
Line_86                      Line_86             30017             30255          0.081499         -0.045739          -0.08113          0.048226
Line_87                      Line_87             30017             30256            1.4349           0.04587           -1.4307          0.018334
Line_88                      Line_88             30019             30020          -0.23727          0.050938           0.24556         -0.020966
Line_89                      Line_89             30019             30093       -0.00075551        0.00014085        0.00076348        -0.0001146
Line_90                      Line_90             30020             30025          0.010158        -0.0058251         -0.010107         0.0061921
Line_91                      Line_91             30020             30093          0.079487        -0.0072176         -0.077653          0.014253
Line_92                      Line_92             30020             30094           0.13496       -0.00010027          -0.13114          0.018129
Line_93                      Line_93             30021             30092          0.013651        -0.0059684         -0.012962         0.0067632
Line_94                      Line_94             30021             30097         0.0039582         -0.002283        -0.0036143         0.0025701
Line_95                      Line_95             30021             30098        0.00071512       -0.00093152       -0.00063992        0.00098837
Line_96                      Line_96             30023             30024          -0.77433          -0.15821           0.77544           0.17253
Line_97                      Line_97             30023             30026            2.2524           0.18306           -2.2496          -0.34691
Line_98                      Line_98             30023             30026            2.2524           0.18306           -2.2496          -0.34691
Line_99                      Line_99             30023             30026           0.92247           0.11394          -0.92121         -0.093354
Line_100                    Line_100             30023             30037           0.03019           0.02481         -0.030076         -0.023627
Line_101                    Line_101             30023             30038          0.018766          0.025599         -0.018691         -0.024825
Line_102                    Line_102             30023             30045           0.35372          0.057315          -0.35198         -0.022716
Line_103                    Line_103             30023             30048           0.10904          0.032523          -0.10872         -0.024986
Line_104                    Line_104             30023             30049          0.021075          0.010882         -0.021008        -0.0099118
Line_105                    Line_105             30023             30052        -0.0028228          0.015181          0.002876          -0.01477
Line_106                    Line_106             30023             30057           0.11674           0.15119           -0.1165          -0.14644
Line_107                    Line_107             30023             30060          -0.17406          0.036553           0.17822        -0.0040802
Line_108                    Line_108             30023             30064          -0.19693          0.046578           0.19896         -0.027115
Line_109                    Line_109             30023             30091            -1.058          -0.27518            1.0598           0.31453
Line_110                    Line_110             30023             30201          -0.89718          -0.11045           0.89937           0.15994
Line_111                    Line_111             30023             30242          -0.14001          0.016887           0.14211          0.010241
Line_112                    Line_112             30024             30026             1.444          -0.10074           -1.4373          -0.41382
Line_113                    Line_113             30024             30026             1.444          -0.10074           -1.4373          -0.41382
Line_114                    Line_114             30024             30026          0.031803         0.0052198         -0.031697        -0.0039313
Line_115                    Line_115             30024             30037         0.0015259        0.00090117        -0.0015192       -0.00081833
Line_116                    Line_116             30024             30038         0.0012231        0.00093312        -0.0012181        -0.0008725
Line_117                    Line_117             30024             30045          0.045719         0.0075777         -0.045323         -0.002299
Line_118                    Line_118             30024             30048          0.015027         0.0042047         -0.014941        -0.0028966
Line_119                    Line_119             30024             30052         0.0010646         0.0023246        -0.0010522        -0.0022445
Line_120                    Line_120             30024             30057          0.039194          0.027907         -0.039048         -0.025969
Line_121                    Line_121             30024             30091          -0.56471          -0.13989           0.56572           0.15018
Line_122                    Line_122             30024             30095         -0.037789         0.0053824          0.037847        -0.0048894
Line_123                    Line_123             30024             30201          -0.25416        -0.0075419           0.25508          0.016807
Line_124                    Line_124             30024             30202          -0.14751          0.016742           0.14799         -0.012103
Line_125                    Line_125             30025             30028          0.006243          0.001069        -0.0061684       -0.00089428
Line_126                    Line_126             30025             30030          0.029571         0.0031977         -0.029326        -0.0021187
Line_127                    Line_127             30025             30040         0.0018651       -0.00024816        -0.0017702        0.00055985
Line_128                    Line_128             30025             30041         0.0021852       -0.00035451        -0.0020465        0.00076376
Line_129                    Line_129             30025             30093          0.029094         0.0050396         -0.028682        -0.0031548
Line_130                    Line_130             30025             30094           0.16634           0.01984          -0.16232        -0.0018014
Line_131                    Line_131             30025             30203          0.012447        -0.0039705         -0.011732         0.0057304
Line_132                    Line_132             30026             30036           -4.0672          0.014892            4.0865           -0.1102
Line_133                    Line_133             30026             30036           -4.0672          0.014892            4.0865           -0.1102
Line_134                    Line_134             30026             30036           -2.2741           0.21728            2.2922         -0.046739
Line_135                    Line_135             30026             30037          0.021384           0.16731         -0.021025          -0.16439
Line_136                    Line_136             30026             30038         -0.093252           0.25222            0.0939          -0.24703
Line_137                    Line_137             30026             30045           0.29036          0.040342          -0.28907         -0.018458
Line_138                    Line_138             30026             30048           0.40262           0.11518          -0.40065         -0.096595
Line_139                    Line_139             30026             30049        0.00038221        0.00041717       -0.00038141       -0.00040486
Line_140                    Line_140             30026             30052         -0.013436          0.013199           0.01353         -0.012508
Line_141                    Line_141             30026             30057         -0.041182           0.11017          0.041303          -0.10805
Line_142                    Line_142             30026             30091           -0.1809         -0.033016           0.18148           0.04373
Line_143                    Line_143             30027             30036          -0.45226           0.29368           0.45355          -0.27917
Line_144                    Line_144             30027             30064        -0.0048646         0.0013146          0.004845       -0.00096163
Line_145                    Line_145             30027             30066           -1.2097           0.35812            1.2192          -0.24538
Line_146                    Line_146             30027             30074          -0.19907           0.25562           0.19937          -0.24719
Line_147                    Line_147             30027             30095         -0.011833           0.10125          0.011907          -0.10049
Line_148                    Line_148             30027             30202          -0.40726           0.16615            0.4077           -0.1569
Line_149                    Line_149             30027             30256           0.21732            -0.281          -0.21716           -0.5348
Line_150                    Line_150             30027             30256           0.16678           0.09966          -0.16665         -0.097713
Line_151                    Line_151             30028             30030         0.0095835        -0.0074168        -0.0095526         0.0075465
Line_152                    Line_152             30028             30032           0.15194         -0.041538          -0.14809           0.06032
Line_153                    Line_153             30028             30034         -0.022097       -0.00025351          0.022297         0.0010729
Line_154                    Line_154             30029             30092         0.0022412        -0.0061489        -0.0017304         0.0063966
Line_155                    Line_155             30029             30097         0.0011663        -0.0012595        -0.0010203         0.0013834
Line_156                    Line_156             30030             30034          -0.42256          0.027304           0.42571        -0.0076373
Line_157                    Line_157             30030             30043         0.0022407        -0.0003597        -0.0022054        0.00051802
Line_158                    Line_158             30030             30094         0.0071004          0.001048        -0.0070162       -0.00052375
Line_159                    Line_159             30030             30135          0.064479        -0.0056925         -0.062453          0.012809
Line_160                    Line_160             30031             30032          0.015228         0.0052993         -0.014933        -0.0019118
Line_161                    Line_161             30031             30040          0.065469          0.020842         -0.063206        -0.0045682
Line_162                    Line_162             30031             30041          0.075998          0.019708         -0.072412         0.0003359
Line_163                    Line_163             30031             30042          0.020129          0.005363         -0.019321       -1.7317e-05
Line_164                    Line_164             30031             30047          0.062766          0.019815         -0.060569        -0.0041535
Line_165                    Line_165             30031             30051          0.010971         0.0052816         -0.010662        -0.0036469
Line_166                    Line_166             30031             30053         0.0067968         0.0017045        -0.0064261       -0.00037829
Line_167                    Line_167             30031             30054          0.075026          0.021604         -0.071825        -0.0011606
Line_168                    Line_168             30031             30055          0.067452          0.019284         -0.064541       -0.00092296
Line_169                    Line_169             30031             30056           0.24333           0.10952          -0.23718          -0.06473
Line_170                    Line_170             30031             30059          0.047996          0.058111          -0.04654         -0.052657
Line_171                    Line_171             30031             30061        -0.0033715         0.0082135         0.0036266        -0.0073748
Line_172                    Line_172             30031             30203          0.023462         0.0063913         -0.022677        -0.0013254
Line_173                    Line_173             30032             30033         -0.058141          0.014152          0.058626         -0.012443
Line_174                    Line_174             30032             30034         -0.024563         0.0050607          0.024928        -0.0011636
Line_175                    Line_175             30032             30040          0.020239          0.008011          -0.02021        -0.0073406
Line_176                    Line_176             30032             30041          0.037326         0.0073921         -0.037192        -0.0054199
Line_177                    Line_177             30032             30042            1.9665         -0.039373           -1.9486           0.14042
Line_178                    Line_178             30032             30047          0.009345         0.0037154        -0.0093364         -0.003394
Line_179                    Line_179             30032             30053       -0.00034798        0.00039077        0.00035022        -0.0003773
Line_180                    Line_180             30032             30054          0.014904         0.0035499          -0.01486        -0.0026608
Line_181                    Line_181             30032             30055          0.013458         0.0031896         -0.013418        -0.0023876
Line_182                    Line_182             30032             30056        -0.0081831         0.0027618         0.0082032        -0.0023094
Line_183                    Line_183             30032             30203        -0.0038775          -0.91151         0.0038855           0.91191
Line_184                    Line_184             30033             30034          -0.51999           0.11173            0.5265         -0.044727
Line_185                    Line_185             30033             30039         -0.084705          0.036547          0.085229          -0.03346
Line_186                    Line_186             30033             30040           0.24315          0.036013          -0.24147          -0.02153
Line_187                    Line_187             30033             30041           0.51869          0.043343          -0.51333        -0.0015036
Line_188                    Line_188             30033             30042             1.254         0.0034808           -1.2397          0.097861
Line_189                    Line_189             30033             30043       -0.00052109         0.0014856         0.0005268        -0.0014606
Line_190                    Line_190             30033             30044        -0.0039082         0.0023885         0.0039552        -0.0022493
Line_191                    Line_191             30033             30047          0.024457         0.0012271         -0.024151        0.00022346
Line_192                    Line_192             30033             30050        -0.0055233         0.0069004         0.0055617        -0.0067074
Line_193                    Line_193             30033             30053        0.00038592        0.00042274        -0.0003828       -0.00041183
Line_194                    Line_194             30033             30054         0.0041619       -0.00014131        -0.0040673        0.00049134
Line_195                    Line_195             30033             30055         0.0020757       -0.00010104        -0.0020259        0.00027492
Line_196                    Line_196             30033             30070         -0.019115          0.012219          0.020044         -0.010268
Line_197                    Line_197             30033             30203          0.058103         -0.010752         -0.057694          0.012455
Line_198                    Line_198             30034             30039            0.3645         -0.037896            -0.359          0.071753
Line_199                    Line_199             30034             30040          0.018895         0.0024082         -0.018877         0.0011008
Line_200                    Line_200             30034             30041         0.0057334        0.00076857        -0.0057266        0.00042505
...

OTHER ALGEBRAIC VARIABLES:
                                    

q PV 1                      -0.43707
q PV 2                       0.77173
q PV 3                        12.558
q PV 4                        8.7613
q PV 5                       -1.0558
q PV 6                        6.9764
q PV 7                         2.518
q PV 8                        1.0373
q PV 9                       0.99995
q PV 10                     -0.23059
q PV 11                      0.39321
q PV 12                       1.3929
q PV 13                      0.42999
q PV 14                       9.5998
q PV 15                       2.3476
q PV 16                      -4.5918
q PV 17                     -0.38613
q PV 18                       2.3617
q PV 19                      -3.0767
q PV 20                      0.48665
q PV 21                        21.98
q PV 22                       2.6186
q PV 23                       1.3718
q PV 24                      0.22414
q PV 26                     0.042474
q PV 27                    -0.040583
q PV 28                    -0.083751
q PV 29                       1.7645
q PV 30                     -0.20821
q PV 31                      -0.4791
q PV 32                    -0.006648
q Slack 25                    12.307
p Slack 25                    44.222

